-- E100 base case to generate RESTART and FLUX data for SLT_RST_AQ
-- Contains one oil producer, one water injector and a numerical aquifer 

RUNSPEC

TITLE
Base case to use by SLT_RST_AQ
 

DIMENS
13  1  1 /

OIL

GAS

WATER

FIELD

FMTOUT
FMTIN

WELLDIMS
-- nw
    3  1  1  3 /

START
1 'JAN' 1996 /

TABDIMS
1 1 30 10 /

AQUDIMS  
--                              -- Generated : Petrel
  2 2 1 1 1 1 /
  
REGDIMS
-- max  sets max  max
-- fip  fip  res  flux
-- reg  reg  reg  reg
    4    1    0    4 /

UNIFOUT


----
GRID
----

INIT

DXV
   13*200/

DYV
   1*1500/

EQUALS

     TOPS   6100  1  13 1  1  1  1  /

     PORO   0.18  1  13 1  1  1  1  /
     NTG    1.00  1  13 1  1  1  1  /

     DZ     32    1  13 1  1  1  1  / LAYER 1
     PERMX  500   1  13 1  1  1  1  / WAS 50
/

COPY
   PERMX   PERMY  /
   PERMX   PERMZ  /
/

MULTIPLY
   PERMZ   0.2  1 13  1 1  1 1   /
/

ACTNUM
0 0 0 0 0 1 1 1 1 1 1 1 1
/

AQUCON                                 -- Generated : Petrel
--        Aquifer name,      Simulation name,  Aquifer identification number
--  NumericalFiveCells,             IVECELLS,                              1
--        End of table
  1 6 6 1 1 1 1 I- 1 /
  /

AQUNUM                                 -- Generated : Petrel
  1 1 1 1 1000 1000 0.25 200 -0 1* 1 1 /
  1 3 1 1 1000 1000 0.25 200 -0 1* 1 1 /
  /
  
--
--  WRITE OUT FLUX DATA FOR LAYERS 1 TO 8 OF FIPNUM 2
--  FOR A SUBSEQUENT CUT DOWN RUN
-- 
DUMPFLUX
FLUXNUM
0 0 0 0 0 1 1 1 1 1 1 0 0
/

FLUXTYPE
PRESSURE /



RPTGRID
ALLNNC /

--**************props section***************--

PROPS

-- krww3p three phase water wet rel perm cap press
SWFN
--drainage curve wetting
--table 1
--Sw   Krw   Pc
0.2    0     6
0.25   0.005 5
0.3    0.01  4
0.35   0.02  3
0.40   0.03  2.4
0.45   0.04  1.9
0.5    0.055 1.4
0.55   0.08  1.0
0.6    0.11  0.7
0.65   0.17  0.4
0.7    0.23  0.25
0.75   0.32  0.1
1.0    1.0   0.0
/



SGFN
--Drainage curves
--Table 1 for SATNUM
--Sg   Krg   Pcog  note must have connate gas sat = 0
0      0     0
0.05   0     0.09
0.10   0.022 0.20
0.15   0.06  0.38
0.20   0.10  0.57
0.25   0.14  0.83
0.30   0.188 1.08
0.35   0.24  1.37
0.40   0.30  1.69
0.45   0.364 2
0.50   0.458 2.36
0.55   0.60  2.70
0.60   0.75  3
/


SOF3
--Drainage curves
--Table 1 for SATNUM
--So   Krow   Krog
0.0    0      0
0.1    0.02   0
0.2    0.05   0
0.25   0.08   0.01
0.30   0.11   0.02
0.35   0.15   0.03
0.40   0.2    0.04
0.45   0.25   0.08
0.50   0.32   0.14
0.55   0.4    0.225
0.60   0.5    0.33
0.65   0.6    0.434
0.70   0.7    0.575
0.75   0.8    0.72
0.80   0.9    0.9
/


PVDO
--Po    Bo     Vo
2500    1.26   0.5 
3000    1.256  0.5
3500    1.252  0.5
4000    1.248  0.5
4500    1.245  0.5
5000    1.243  0.5
/
PVDG
--Pg    Bg     Vg
2500    0.98   0.1550
3000    0.74   0.1650
3500    0.65   0.170
4000    0.59   0.175
4500    0.54   0.180
5000    0.45   0.19
/

PVTW
--ref.pres.  Bw    Cw      Visw
4500         1.03  3.0E-5  0.4 /

ROCK
--ref.pres.  compressibility
4500         3.5E-6 /

--SURFACE DENSITY OF
--RESERVOIR FLUIDS

GRAVITY
--oil   water   gas
32      1.05    0.7 /







--**************regions section*************--

REGIONS

SATNUM
13*1
/

FIPNUM
4 4 3 3 2 2 1 1 1 1 1 1 1
/
--**************solution section************--

SOLUTION

PRESSURE
13*4500 /


SWAT
  3*1 10*0.2  / 

SGAS
  13*0.0  /

-- $$$$$$$$$$$$$$$$$$$$$$$$$$$$$$$$$$$$$$$$$$$$$$$$$$$$$$$$$$$$$$$$$$$$


RPTRST                                 -- Generated : Petrel
  BASIC=3 FLOWS CONV TRAS /

RPTSOL                                 -- Generated : Petrel
  RESTART=2 FIP /



--**************summary section*************--

SUMMARY

ALL

FWIR 
FOIR
FGIR
FOPR
FOPT
FPR
FOIP
FWCT
FWPR
FGPR

WOPR
/
WWCT
/
WBHP
/
WWPR
/
WOPT
/
WWIR
/
WGIR
/
WOIR
/
FNQR

ANQR
 /

FNQT 

ANQT
 /
SCHEDULE


TUNING
5 5 /
/
/

RPTSCHED                               -- Generated : Petrel
  FIP WELLS FLOWAT=3 /

RPTRST                                 -- Generated : Petrel
  BASIC=3 FLOWS FREQ CONV TRAS /

WELSPECS
'P1'  'G'  7  1  1*  'OIL'  /
'I1'  'G'  9  1  1*  'WATER'  /
/

COMPDAT
'P1'  7  1  1  1  'OPEN'  2*  0.583 /
'I1'  9  1  1  1  'OPEN'  2*  0.583 /
/

WCONPROD
'P1'  'OPEN'  'BHP' 5*  3000 /
/

WCONINJE
 'I1' WATER OPEN RESV 1* 1000 6000/
/


TSTEP
10*5 /


TSTEP
10*5 /


END

