--A Dual porosity dual permeability case
RUNSPEC
TITLE
                          LITVAK 26.11.85

DIMENS
    6    6    6  /

DUALPORO

DUALPERM

OIL

WATER

GAS

DISGAS

FIELD

ROCKCOMP
   'REVERS '    2  /

EQLDIMS
    1  500    2    1    1 /

TABDIMS
    2    1   13   13    2    5 /

REGDIMS
    2    1    0    0   /

WELLDIMS
    4   13    1    4 /

NUPCOL
    4 /

START
  26 'JAN' 1983  /

NSTACK
    4 /

GRID      ==============================================================
DPGRID
EQUALS                                           FIELD   17:06 26 NOV 85
'DX      ' 220.000000  ,   ,     ,   ,     ,   ,     /
'DY      ' 220.000000  ,   ,     ,   ,     ,   ,     /
'PERMX   ' 1.00000000  ,  1,  6  ,  1,  6  ,  1,  3  /
'PERMY   ' 1.00000000  ,   ,     ,   ,     ,   ,     /
'PERMZ' 1 /
'DZ      ' 250.000000  ,  1,  6  ,  1,  6  ,  1,  1  /
'TOPS'    7021   /
'PORO    '  .10000000  ,   ,     ,   ,     ,   ,     /
'DZ      ' 300.000000  ,  1,  6  ,  1,  6  ,  2,  2  /
'PORO    '  .10000000  ,   ,     ,   ,     ,   ,     /
'DZ      ' 700.000000  ,  1,  6  ,  1,  6  ,  3,  3  /
'PORO    '  .07500000  ,   ,     ,   ,     ,   ,     /
'PORO    '  .01500000  ,  1,  6  ,  1,  6  ,  4,  6  /
'PERMX   ' 2000.00000  ,  1,  6  ,  1,  6  ,  4,  4  /
'PERMY   ' 2000.00000  ,   ,     ,   ,     ,   ,     /
'PERMZ   ' 500.000000  ,   ,     ,   ,     ,   ,     /
'PERMX   ' 1000.00000  ,  1,  6  ,  1,  6  ,  5,  5  /
'PERMY   ' 1000.00000  ,   ,     ,   ,     ,   ,     /
'PERMZ   ' 500.000000  ,   ,     ,   ,     ,   ,     /
'PERMX   ' 100.000000  ,  1,  6  ,  1,  6  ,  6,  6  /
'PERMY   ' 100.000000  ,   ,     ,   ,     ,   ,     /
'PERMZ   ' 50.0000000  ,   ,     ,   ,     ,   ,     /
/

---------- ARRAY    CONSTANT ---- BOX ----
ADD
          'DZ'      10.0     1  6  1  6  3  3  /
/

RPTGRID                                          FIELD   18:07 29 NOV 83
   -- Report Levels for Grid Section Data
   -- 
   'DX' 
   'DY' 
   'DZ' 
   'PERMX' 
   'PERMY' 
   'MULTX' 
   'MULTY' 
   'PORO' 
   'TOPS' 
   'PORV' 
   'DEPTH' 
   'TRANX' 
   'TRANY' 
   'ALLNNC' 
 / 

--SIGMA FOR 10 BY 10 BY 30 FT BLOCKS
SIGMA
 0.12   /

COLUMNS
2 132 /

 DZMTRX
 10.0 /

 COLUMNS
 1 132 /

DEBUG
6*0 1 0 /

INIT

PROPS     ==============================================================

STONE1

--TO OBTAIN CASE WITH NO IMBIBITION, SET CAPILLARY PRESSURES TO ZERO
SWFN
    .3000  .0000   4.00
    .5000  .0200   2.95
    .7000  .2000   0.85
   1.0     1.0      .0
/
    .0000  .0000 0.0000
   1.0000 1.0000  .0000
/

SOF3
    .2000  .0000 0.0
    .7000  1.0   1.0
/
    .0000  .0000 0.0
   1.0000 1.0000 1.0
/

SGFN
   0.0     0.0   0.0
   0.7     1.0   0.0
/
   0.0     0.0   0.0
   1.0     1.0   0.0
/

PVTW       1 TABLES   13 P NODES    5 R NODES    FIELD   18:05 29 NOV 83
  14.7       1.0        0.0000032   0.3       0.00E-01 /

PVTO
-- RS     PBUB      BO      VISC
   0.0      14.7    1.000   5.52    /
   0.403  2464.0    1.233   1.27    /
   0.760  5014.0    1.381   1.11
          6014.0    1.371   1.51    /
/

PVDG       1 TABLES   13 P NODES    5 R NODES    FIELD   18:12 26 NOV 85
-- P       BG      VISC
   14.7    27.71   0.0138
   5014.0  0.69457  0.0262
/

--ROCK
-- 4000.00        .40E-05 /

DENSITY
 55.0000  62.4300   .05140 /

RPTPROPS                                         FIELD   15:56 29 NOV 83
   -- Initialisation Print Output
   -- 
'PRES' 'SOIL' 'SWAT' 'RS' 'FIP=2' 'EQUIL' /

ROCKTAB
1000.0  0.96  0.98
2000.0  0.99  0.99
3000.0  1.00  1.00
4000.0  1.01  1.00
/
1000.0  0.94  0.97
2000.0  0.98  0.99
3000.0  1.00  1.00
4000.0  1.02  1.01
/

REGIONS     ============================================================

EQUALS                                           FIELD   18:09 29 NOV 83
'SATNUM  ' 1 ,  1,  6  ,  1,  6  ,  1,  3  /
'SATNUM  ' 2 ,  1,  6  ,  1,  6  ,  4,  6  /
'FIPNUM  ' 1 ,  1,  6  ,  1,  6  ,  1,  3  /
'FIPNUM  ' 2 ,  1,  6  ,  1,  6  ,  4,  6  /
'ROCKNUM ' 1 ,  1,  6  ,  1,  6  ,  1,  3  /
'ROCKNUM ' 2 ,  1,  6  ,  1,  6  ,  4,  6  /
/

RPTREGS                                          FIELD   18:05 29 NOV 83
   -- Controls on output from regions section
   -- 
   'SATNUM' 
/

SOLUTION   =============================================================

EQUIL

8250  3458  7571  0  6000 0  1  0  -10   /

RSVD
7021 .200
7571 .300 /

RPTSOL
-- Initialisation Print Output
-- 
'PRES' 'SOIL' 'SWAT' 'RS' 'FIP=2' 'EQUIL' /

SUMMARY

TCPU
-- PERFORMA
ALL

SEPARATE

SCHEDULE   ===========================================================

TSTEP
1.0 /

RPTSCHED                                         FIELD   10:17 13 JUN 85
  'PRES' 'SWAT' 'RESTART=2' 'FIP=2' 'WELLS=2' 'SUMMARY=2' 'NEWTON=2' /

WELSPECS
'prod1'  'G'   1  1  7146  'OIL'  /
'prod2'  'G'   1  1  7421  'OIL'  /
'prod3'  'G'   6  6  7146  'OIL'  /
'prod4'  'G'   6  6  7421  'OIL' /
 /
COMPDAT                                          FIELD   18:10 29 NOV 83
'prod1    '   1   1   4   4 'OPEN'   0  1*  .5000  1*  .0000 0.000E-01/
'prod2    '   1   1   5   5 'OPEN'   0  1*  .5000  1*   .0000
0.000E-01/
'prod3    '   6   6   4   4 'OPEN'   0  1*  .5     1*      .00/
'prod4    '   6   6   5   5 'OPEN'   0  1*  .5     1*      .00/
/






WCONPROD                                         FIELD   18:11 29 NOV 83
'prod1     ','OPEN','BHP'     1.0E20      1.0E20      1.0E20
 1.0E20       1.0E20   1000.000   .000000    0  .00000000/
'prod2     ','OPEN','BHP'     1.0E20      1.0E20      1.0E20
 1.0E20       1.0E20   1000.000   .000000    0  .00000000/
'prod3     ','OPEN','BHP'     1.0E20      1.0E20      1.0E20
 1.0E20       1.0E20   1000.000   .000000    0  .00000000/
'prod4     ','OPEN','BHP'     1.0E20      1.0E20      1.0E20
 1.0E20       1.0E20   1000.000   .000000    0  .00000000/
/

WELDEBUG
'prod1     '  0100 /
'prod2     '  0100 /
'prod3     '  0100 /
'prod4     '  0100 /
/

TSTEP
 6*365
/

END
