-- DUAL POROSITY CASE, with rock compressibility hysteresis
-- DEBUG
--  0 0 0 0 0   0 0 0 0 2
--  0 0 0 0 0   0 0 0 0 0
--  0 0 0 0 0   0 0 0 0 0
--  0 0 0 0 0   0 0 0 0 0
--  0 0 0 0 0   0 0 0 0 0  /
RUNSPEC
TITLE
    DUAL POROSITY CASE

DIMENS
    4    4    4  /

DUALPORO

OIL

WATER

GAS

DISGAS

VAPOIL

FIELD

ROCKCOMP
   'HYSTER '    2  /

EQLDIMS
    2  100    3    1    1 /

EQLOPTS
                                  'MOBILE'   /

ENDSCALE
'NODIR'     'REVERS'           2   10  /

TABDIMS
    2    1   13   25    1   20 /

GRAVDR

WELLDIMS
    4   13    1    4 /

NUPCOL
    4 /

START
   1 'JAN' 1990  /

GRID      ==============================================================

INIT

NODPPM

NEWTRAN

EQUALS
 'DX'      150    /    PROPERTIES COMMON TO MATRIX AND FRACTURES
 'DY'      150    /
 'DZ'       15    /
 'PORO'   0.20      1  4  1  4  1  2  /  MATRIX PROPERTIES
 'PERMX'     1    /
 'PERMY'     1    /
 'PERMZ'     1    /
 'PORO'   0.005     1  4  1  4  3  4  /  FRACTURE PROPERTIES
 'PERMX'   500    /
 'PERMY'   500    /
 'PERMZ'   500    /
 'TOPS'   4000      1  4  1  4  1  1  /
 'TOPS'   4005      1  4  1  1  1  1  /
/

ADD
 'PORO'   0.005     1  4  1  4  3  4  /  FRACTURE PROPERTIES
/

SIGMAV
 32*0.1 /

DZMTRXV
 32*10.0 /

BOX
  3  4     3  4   3  4  /

MULTX
 8*2.0  /

MULTY
 8*2.0  /

MULTZ
 8*2.0  /

RPTGRID                                          FIELD   18:07 29 NOV 83
   -- Report Levels for Grid Section Data
   -- 
   'DX' 
   'DY' 
   'DZ' 
   'PERMX' 
   'PERMY' 
   'MULTX' 
   'MULTY' 
   'PORO' 
   'TOPS' 
   'PORV' 
   'DEPTH' 
   'TRANX' 
   'TRANY' 
   'ALLNNC' 
 / 

EDIT

DEPTH
 16*4010
 16*4025
 16*4040
 16*4055  /

EDITNNC
 1 1 3   1 2 4     2.0 /
 /

PROPS     ==============================================================

--TO OBTAIN CASE WITH NO IMBIBITION, SET CAPILLARY PRESSURES TO ZERO
SWFN
    .2500  .0000 4.0000
    .3000  .0200 2.9500
    .4000  .0550 1.6500
    .5000  .1000  .8500
    .6000  .1450  .3000
    .7000  .2000  .0000
/
    .0000  .0000 4.0000
    .1000  .0500 1.8500
    .2000  .1100  .9000
    .2500  .1450  .7250
    .3000  .1800  .5500
    .4000  .2600  .4000
    .5000  .3550  .2900
    .6000  .4750  .2000
    .7000  .5850  .1600
    .8000  .7150  .1100
    .9000  .8500  .0500
   1.0000 1.0000  .0000
/

STONE1
SOF3
    .3000  .0000 .0000
    .4000  .1100 .1100
    .5000  .2400 .2400
    .6000  .4200 .4200
    .7000  .7050 .7050
    .7500  .9200 .9200
/
    .0000  .0000  .0000
    .1000  .0210  .0210
    .2000  .0570  .0570
    .3000  .1020  .1020
    .4000  .1730  .1730
    .5000  .2400  .2400
    .6000  .3300  .3300
    .7000  .4500  .4500
    .7500  .5190  .5190
    .8000  .5870  .5870
    .9000  .7700  .7700
   1.0000 1.0000 1.0000
/
SGFN       1 TABLES   19 NODES IN EACH           FIELD   16:31 18 JAN 85
    .0000  .0000  .0000
    .0400  .0000  .2000
    .1000  .0220  .5000
    .2000  .1000 1.0000
    .3000  .2400 1.5000
    .4000  .3400 2.0000
    .5000  .4200 2.5000
    .6000  .5000 3.0000
    .7000  .8125 3.5000
    .7500 1.0000 3.9000
/
    .0000  .0000  .0000
    1.0    1.0    .0000
/

ENPTVD
 4000    0.25  0.26 3*   0.75  0.75  1*
 5000    0.30  0.35 3*   0.70  0.70  1*  /

 4000    0.0   0.0  3*   1.0   2*
 5000    0.0   0.0  3*   1.0   2*  /

TZONE
  F  F  F  /

PVTW       1 TABLES   13 P NODES    5 R NODES    FIELD   18:05 29 NOV 83
  .0000000   1.00000    3.03E-06    .50000    0.00E-01 /

--   RS      POIL  FVFO  VISO
PVTO
    0.001    14.7 1.062  1.04    /
    0.0905  264.7 1.15   0.975   /
    0.18    514.7 1.207  0.91    /
    0.371  1014.7 1.295  0.83    /
    0.636  2014.7 1.435  0.695   /
    0.775  2514.7 1.5    0.641   /
    0.93   3014.7 1.565  0.594   /
    1.270  4014.7 1.695  0.51
           5014.7 1.671  0.549
           9014.7 1.579  0.74    /
    1.618  5014.7 1.827  0.449
           9014.7 1.726  0.449   /
    1.8    9000.0 1.83   0.305
           9100.0 1.82   0.305   /
/

--   PGAS  RV      BG     VISC
PVTG
     14.7 0.0001   5.9    0.01    /
    264.7 0.00905  3.0    0.012   /
    514.7 0.018    2.0    0.014   /
   1014.7 0.0371   1.0    0.016   /
   2014.7 0.0636   0.8    0.017   /
   2514.7 0.0775   0.7    0.018   /
   3014.7 0.093    0.6    0.019   /
   4014.7 0.1270   0.55   0.020
          0.10     0.50   0.019
          0.0     0.45   0.017   /
   5014.7 0.1618   0.500  0.022
          0.0     0.45   0.020   /
   9000.0 0.18     0.45   0.024
          0.0     0.4    0.022   /
/

ROCKTABH
 1000.0       0.70 0.70
       2000.0 0.75 0.75
       3000.0 0.80 0.80
       4000.0 0.85 0.85 /
 2000.0       0.80 0.80
       3000.0 0.85 0.85
       4000.0 0.90 0.90 /
 3000.0       0.90 0.90
       4000.0 0.95 0.95 /
 4000.0       1.0  1.0
       5000.0 1.0  1.0  /
 5000.0       1.0  1.0
       6000.0 1.0  1.0  /
/
 1000.0       0.60 0.60
       2000.0 0.65 0.65
       3000.0 0.70 0.70
       4000.0 0.75 0.75 /
 2000.0       0.70 0.70
       3000.0 0.75 0.75
       4000.0 0.80 0.80 /
 3000.0       0.80 0.80
       4000.0 0.95 0.95 /
 4000.0       1.0  1.0
       5000.0 1.0  1.0  /
 5000.0       1.0  1.0
       6000.0 1.0  1.0  /
/

OVERBURD
 3000.0     10
 5000.0     20  /
 3000.0     10
 5000.0     20  /

DENSITY
 52.0000  64.0000   .04400 /

RPTPROPS                                         FIELD   15:56 29 NOV 83
   -- PROPS Reporting Options
   -- 
   'PVTO' 'PVDO' 'PVTW' 'PVTG' 'PVDG' 'DENSITY' 'GRAVITY' 'SDENSITY' 'ROCK' 
   'ROCKTAB' 
/

REGIONS     ============================================================

EQUALS                                           FIELD   18:09 29 NOV 83
'SATNUM' 1 ,  1,  4  ,  1,  4  ,  1,  2  /
'SATNUM' 2 ,  1,  4  ,  1,  4  ,  3,  4  /
/

EQLNUM
 32*1  32*2 /

ENDNUM
 32*1  32*2 /

ROCKNUM
 1 2 1 2  1 2 1 2  1 2 1 2  1 2 1 2
 1 2 1 2  1 2 1 2  1 2 1 2  1 2 1 2
 1 2 1 2  1 2 1 2  1 2 1 2  1 2 1 2
 1 2 1 2  1 2 1 2  1 2 1 2  1 2 1 2  /

RPTREGS                                          FIELD   18:05 29 NOV 83
  -- Controls on output from regions section
  -- 
  'SATNUM' 
/

SOLUTION   =============================================================

EQUIL
4010  3959  6000  0  4010   0   0   0  10  /
4012  3959  6000  0  4012   0   0   0  10  /


RPTSOL
-- Initialisation Print Output
-- 
'PRES' 'SOIL' 'SWAT' 'SGAS' 'RS' 'RV' 'FIP=2' 'EQUIL' /

SUMMARY

FOPR

ALL

MSUMLINS

MSUMNEWT

SEPARATE


SCHEDULE   ===========================================================

RPTSCHED                                         FIELD   10:17 13 JUN 85
   'PRES' 'SOIL' 'SWAT' 'SGAS' 'RS' 'RV' 'RESTART=2' 'FIP=2' 'WELLS=2' 'CPU=2' 
'NEWTON=2' /

WELSPECS
'IW'  'G'   1  1  4000  'WAT'  /
'IG'  'G'   4  1  4000  'GAS'  /
'PX'  'G'   4  4  4000  'OIL'  /
/

COMPDAT                                          FIELD   18:10 29 NOV 83
'IW'   1   1   3   4 'OPEN'   0  .000000  .5000  .00000   .0000 0.000E-01/
'IG'   4   1   3   4 'OPEN'   0  .000000  .5000  .00000   .0000 0.000E-01/
'PX'   4   4   3   4 'OPEN'   0  .000000  .5000  .00000   .0000 0.000E-01/
/

WCONINJE                                         FIELD   18:10 29 NOV 83
'IW','WAT','OPEN','RATE' 20.000000  /
'IG','GAS','OPEN','RATE' 200.000000 /
/

WCONPROD                                         FIELD   18:11 29 NOV 83
'PX','OPEN','LRAT'     1.0E20      1.0E20      1.0E20
 210.000000      1.0E20   .000000   .000000    0  .00000000/
/

TSTEP
 0.1 0.9 9.0 10.0
/

VAPPARS
 0.2 0.01 /

TSTEP
 1.0  9.0 10.0 60.0 100.0
/

END
